<?xml version="1.0" encoding="UTF-8"?>

<!-- generated on 2023-05-12 08:19:28 by Eclipse SUMO netedit Version 1.16.0
<configuration xmlns:xsi="http://www.w3.org/2001/XMLSchema-instance" xsi:noNamespaceSchemaLocation="http://sumo.dlr.de/xsd/netconvertConfiguration.xsd">

    <input>
        <sumo-net-file value="C:\SumoProjects - Onlab_Hazak\OnLab_Hazak.net.xml"/>
    </input>

    <output>
        <output-file value="C:\SumoProjects - Onlab_Hazak\OnLab_Hazak.net.xml"/>
    </output>

    <processing>
        <geometry.min-radius.fix.railways value="false"/>
        <geometry.max-grade.fix value="false"/>
        <offset.disable-normalization value="true"/>
        <lefthand value="0"/>
    </processing>

    <junctions>
        <no-turnarounds value="true"/>
        <junctions.corner-detail value="5"/>
        <junctions.limit-turn-speed value="5.50"/>
        <rectangular-lane-cut value="0"/>
    </junctions>

    <pedestrian>
        <walkingareas value="0"/>
    </pedestrian>

</configuration>
-->

<net version="1.16" junctionCornerDetail="5" limitTurnSpeed="5.50" xmlns:xsi="http://www.w3.org/2001/XMLSchema-instance" xsi:noNamespaceSchemaLocation="http://sumo.dlr.de/xsd/net_file.xsd">

    <location netOffset="0.00,0.00" convBoundary="-535.67,-267.41,102.16,262.18" origBoundary="-10000000000.00,-10000000000.00,10000000000.00,10000000000.00" projParameter="!"/>

    <edge id=":J22_0" function="internal">
        <lane id=":J22_0_0" index="0" speed="8.22" length="11.61" shape="-304.84,53.00 -306.12,49.98 -307.91,47.82 -310.22,46.51 -313.05,46.05"/>
    </edge>
    <edge id=":J22_1" function="internal">
        <lane id=":J22_1_0" index="0" speed="13.89" length="16.03" shape="-304.84,53.00 -305.83,49.22 -306.66,45.20 -307.24,41.13 -307.54,37.24"/>
    </edge>
    <edge id=":J22_2" function="internal">
        <lane id=":J22_2_0" index="0" speed="7.57" length="15.51" shape="-304.84,53.00 -305.49,48.59 -304.45,45.46 -301.72,43.62 -297.29,43.07"/>
    </edge>
    <edge id=":J22_3" function="internal">
        <lane id=":J22_3_0" index="0" speed="5.95" length="9.09" shape="-297.35,46.27 -299.94,46.59 -301.54,47.67 -302.15,49.51 -301.77,52.09"/>
    </edge>
    <edge id=":J22_4" function="internal">
        <lane id=":J22_4_0" index="0" speed="13.89" length="15.71" shape="-297.35,46.27 -313.05,46.05"/>
    </edge>
    <edge id=":J22_5" function="internal">
        <lane id=":J22_5_0" index="0" speed="8.46" length="4.58" shape="-297.35,46.27 -301.69,45.64 -301.85,45.55"/>
    </edge>
    <edge id=":J22_12" function="internal">
        <lane id=":J22_12_0" index="0" speed="8.46" length="10.77" shape="-301.85,45.55 -304.83,43.93 -306.79,41.13 -307.54,37.24"/>
    </edge>
    <edge id=":J22_6" function="internal">
        <lane id=":J22_6_0" index="0" speed="7.06" length="10.38" shape="-304.35,37.12 -303.83,39.68 -302.48,41.53 -300.30,42.65 -297.29,43.07"/>
    </edge>
    <edge id=":J22_7" function="internal">
        <lane id=":J22_7_0" index="0" speed="13.89" length="15.22" shape="-304.35,37.12 -304.07,40.90 -303.52,44.68 -302.75,48.43 -301.77,52.09"/>
    </edge>
    <edge id=":J22_8" function="internal">
        <lane id=":J22_8_0" index="0" speed="7.92" length="14.37" shape="-304.35,37.12 -304.77,41.07 -306.36,43.87 -309.12,45.53 -313.05,46.05"/>
    </edge>
    <edge id=":J22_9" function="internal">
        <lane id=":J22_9_0" index="0" speed="6.41" length="9.04" shape="-313.02,42.85 -310.55,42.52 -308.81,41.48 -307.81,39.72 -307.54,37.24"/>
    </edge>
    <edge id=":J22_10" function="internal">
        <lane id=":J22_10_0" index="0" speed="13.89" length="15.72" shape="-313.02,42.85 -297.29,43.07"/>
    </edge>
    <edge id=":J22_11" function="internal">
        <lane id=":J22_11_0" index="0" speed="9.49" length="4.16" shape="-313.02,42.85 -309.11,43.46 -308.93,43.56"/>
    </edge>
    <edge id=":J22_13" function="internal">
        <lane id=":J22_13_0" index="0" speed="9.49" length="11.55" shape="-308.93,43.56 -305.94,45.21 -303.49,48.08 -301.77,52.09"/>
    </edge>
    <edge id=":J23_0" function="internal">
        <lane id=":J23_0_0" index="0" speed="8.94" length="12.44" shape="-156.21,48.73 -159.07,49.08 -161.60,50.35 -163.79,52.54 -165.64,55.65"/>
    </edge>
    <edge id=":J23_1" function="internal">
        <lane id=":J23_1_0" index="0" speed="13.89" length="16.06" shape="-156.21,48.73 -172.26,48.32"/>
    </edge>
    <edge id=":J23_2" function="internal">
        <lane id=":J23_2_0" index="0" speed="8.05" length="3.96" shape="-156.21,48.73 -160.00,48.04 -160.09,47.99"/>
    </edge>
    <edge id=":J23_12" function="internal">
        <lane id=":J23_12_0" index="0" speed="8.05" length="10.21" shape="-160.09,47.99 -162.70,46.30 -164.28,43.50 -164.76,39.64"/>
    </edge>
    <edge id=":J23_3" function="internal">
        <lane id=":J23_3_0" index="0" speed="6.57" length="9.08" shape="-161.56,39.70 -161.26,42.17 -160.24,43.97 -158.52,45.09 -156.09,45.53"/>
    </edge>
    <edge id=":J23_4" function="internal">
        <lane id=":J23_4_0" index="0" speed="13.89" length="16.57" shape="-161.56,39.70 -161.94,43.66 -162.84,47.85 -164.12,51.95 -165.64,55.65"/>
    </edge>
    <edge id=":J23_5" function="internal">
        <lane id=":J23_5_0" index="0" speed="8.37" length="15.63" shape="-161.56,39.70 -162.29,43.53 -164.31,46.25 -167.63,47.85 -172.26,48.32"/>
    </edge>
    <edge id=":J23_6" function="internal">
        <lane id=":J23_6_0" index="0" speed="6.96" length="10.48" shape="-172.20,45.12 -168.98,44.83 -166.67,43.81 -165.26,42.09 -164.76,39.64"/>
    </edge>
    <edge id=":J23_7" function="internal">
        <lane id=":J23_7_0" index="0" speed="13.89" length="16.12" shape="-172.20,45.12 -156.09,45.53"/>
    </edge>
    <edge id=":J23_8" function="internal">
        <lane id=":J23_8_0" index="0" speed="7.46" length="4.75" shape="-172.20,45.12 -167.51,45.85"/>
    </edge>
    <edge id=":J23_13" function="internal">
        <lane id=":J23_13_0" index="0" speed="7.46" length="11.40" shape="-167.51,45.85 -164.85,47.85 -164.23,51.12 -165.64,55.65"/>
    </edge>
    <edge id=":J23_9" function="internal">
        <lane id=":J23_9_0" index="0" speed="5.78" length="9.15" shape="-168.54,54.29 -167.74,51.72 -168.09,49.87 -169.60,48.74 -172.26,48.32"/>
    </edge>
    <edge id=":J23_10" function="internal">
        <lane id=":J23_10_0" index="0" speed="13.89" length="15.23" shape="-168.54,54.29 -167.06,50.79 -165.88,47.14 -165.09,43.41 -164.76,39.64"/>
    </edge>
    <edge id=":J23_11" function="internal">
        <lane id=":J23_11_0" index="0" speed="10.14" length="16.19" shape="-168.54,54.29 -166.16,50.35 -163.30,47.57 -159.94,45.97 -156.09,45.53"/>
    </edge>
    <edge id=":J24_0" function="internal">
        <lane id=":J24_0_0" index="0" speed="6.71" length="9.42" shape="-153.91,-68.38 -156.51,-67.98 -158.38,-66.89 -159.52,-65.10 -159.93,-62.62"/>
    </edge>
    <edge id=":J24_1" function="internal">
        <lane id=":J24_1_0" index="0" speed="13.89" length="14.72" shape="-153.91,-68.38 -168.64,-68.36"/>
    </edge>
    <edge id=":J24_2" function="internal">
        <lane id=":J24_2_0" index="0" speed="7.86" length="4.26" shape="-153.91,-68.38 -157.90,-68.89 -158.11,-69.01"/>
    </edge>
    <edge id=":J24_12" function="internal">
        <lane id=":J24_12_0" index="0" speed="7.86" length="10.25" shape="-158.11,-69.01 -160.67,-70.56 -162.22,-73.40 -162.54,-77.41"/>
    </edge>
    <edge id=":J24_3" function="internal">
        <lane id=":J24_3_0" index="0" speed="6.34" length="9.04" shape="-159.34,-77.20 -159.14,-74.71 -158.18,-72.94 -156.46,-71.90 -153.97,-71.58"/>
    </edge>
    <edge id=":J24_4" function="internal">
        <lane id=":J24_4_0" index="0" speed="13.89" length="14.59" shape="-159.34,-77.20 -159.93,-62.62"/>
    </edge>
    <edge id=":J24_5" function="internal">
        <lane id=":J24_5_0" index="0" speed="8.22" length="14.48" shape="-159.34,-77.20 -160.14,-73.29 -161.95,-70.51 -164.78,-68.86 -168.64,-68.36"/>
    </edge>
    <edge id=":J24_6" function="internal">
        <lane id=":J24_6_0" index="0" speed="6.77" length="9.49" shape="-168.58,-71.56 -166.08,-71.89 -164.24,-72.98 -163.06,-74.82 -162.54,-77.41"/>
    </edge>
    <edge id=":J24_7" function="internal">
        <lane id=":J24_7_0" index="0" speed="13.89" length="14.61" shape="-168.58,-71.56 -153.97,-71.58"/>
    </edge>
    <edge id=":J24_8" function="internal">
        <lane id=":J24_8_0" index="0" speed="8.00" length="3.89" shape="-168.58,-71.56 -164.74,-70.95"/>
    </edge>
    <edge id=":J24_13" function="internal">
        <lane id=":J24_13_0" index="0" speed="8.00" length="10.30" shape="-164.74,-70.95 -162.02,-69.26 -160.41,-66.48 -159.93,-62.62"/>
    </edge>
    <edge id=":J24_9" function="internal">
        <lane id=":J24_9_0" index="0" speed="6.51" length="9.03" shape="-163.13,-62.68 -163.44,-65.13 -164.46,-66.90 -166.19,-67.98 -168.64,-68.36"/>
    </edge>
    <edge id=":J24_10" function="internal">
        <lane id=":J24_10_0" index="0" speed="13.89" length="14.74" shape="-163.13,-62.68 -162.54,-77.41"/>
    </edge>
    <edge id=":J24_11" function="internal">
        <lane id=":J24_11_0" index="0" speed="8.17" length="14.46" shape="-163.13,-62.68 -162.50,-66.51 -160.77,-69.28 -157.92,-70.97 -153.97,-71.58"/>
    </edge>
    <edge id=":J25_0" function="internal">
        <lane id=":J25_0_0" index="0" speed="7.15" length="10.06" shape="-311.21,-64.77 -311.69,-67.40 -312.90,-69.36 -314.85,-70.65 -317.53,-71.25"/>
    </edge>
    <edge id=":J25_1" function="internal">
        <lane id=":J25_1_0" index="0" speed="13.89" length="14.94" shape="-311.21,-64.77 -311.58,-79.71"/>
    </edge>
    <edge id=":J25_2" function="internal">
        <lane id=":J25_2_0" index="0" speed="7.91" length="4.20" shape="-311.21,-64.77 -310.79,-68.72 -310.68,-68.91"/>
    </edge>
    <edge id=":J25_12" function="internal">
        <lane id=":J25_12_0" index="0" speed="7.91" length="10.20" shape="-310.68,-68.91 -309.19,-71.52 -306.43,-73.17 -302.49,-73.67"/>
    </edge>
    <edge id=":J25_3" function="internal">
        <lane id=":J25_3_0" index="0" speed="6.40" length="9.04" shape="-302.54,-70.47 -305.01,-70.16 -306.75,-69.12 -307.75,-67.36 -308.02,-64.88"/>
    </edge>
    <edge id=":J25_4" function="internal">
        <lane id=":J25_4_0" index="0" speed="13.89" length="15.01" shape="-302.54,-70.47 -317.53,-71.25"/>
    </edge>
    <edge id=":J25_5" function="internal">
        <lane id=":J25_5_0" index="0" speed="8.20" length="4.39" shape="-302.54,-70.47 -306.45,-71.10 -306.81,-71.33"/>
    </edge>
    <edge id=":J25_13" function="internal">
        <lane id=":J25_13_0" index="0" speed="8.20" length="10.25" shape="-306.81,-71.33 -309.26,-72.85 -310.97,-75.72 -311.58,-79.71"/>
    </edge>
    <edge id=":J25_6" function="internal">
        <lane id=":J25_6_0" index="0" speed="6.75" length="9.59" shape="-308.38,-79.75 -307.98,-77.12 -306.87,-75.24 -305.03,-74.09 -302.49,-73.67"/>
    </edge>
    <edge id=":J25_7" function="internal">
        <lane id=":J25_7_0" index="0" speed="13.89" length="14.87" shape="-308.38,-79.75 -308.02,-64.88"/>
    </edge>
    <edge id=":J25_8" function="internal">
        <lane id=":J25_8_0" index="0" speed="7.83" length="4.05" shape="-308.38,-79.75 -308.90,-75.73"/>
    </edge>
    <edge id=":J25_14" function="internal">
        <lane id=":J25_14_0" index="0" speed="7.83" length="10.53" shape="-308.90,-75.73 -310.60,-72.97 -313.48,-71.48 -317.53,-71.25"/>
    </edge>
    <edge id=":J25_9" function="internal">
        <lane id=":J25_9_0" index="0" speed="6.30" length="9.04" shape="-317.25,-74.44 -314.74,-74.58 -312.96,-75.51 -311.90,-77.21 -311.58,-79.71"/>
    </edge>
    <edge id=":J25_10" function="internal">
        <lane id=":J25_10_0" index="0" speed="13.89" length="14.78" shape="-317.25,-74.44 -302.49,-73.67"/>
    </edge>
    <edge id=":J25_11" function="internal">
        <lane id=":J25_11_0" index="0" speed="8.54" length="4.02" shape="-317.25,-74.44 -313.33,-73.55"/>
    </edge>
    <edge id=":J25_15" function="internal">
        <lane id=":J25_15_0" index="0" speed="8.54" length="10.76" shape="-313.33,-73.55 -310.48,-71.66 -308.71,-68.77 -308.02,-64.88"/>
    </edge>
    <edge id=":J26_0" function="internal">
        <lane id=":J26_0_0" index="0" speed="13.89" length="0.91" shape="-389.43,45.20 -389.70,45.20 -389.89,45.19 -390.07,45.16 -390.34,45.11"/>
    </edge>
    <edge id=":J26_1" function="internal">
        <lane id=":J26_1_0" index="0" speed="13.89" length="0.30" shape="-389.70,41.97 -389.61,41.99 -389.55,42.00 -389.49,42.00 -389.40,42.00"/>
    </edge>
    <edge id=":J27_0" function="internal">
        <lane id=":J27_0_0" index="0" speed="7.26" length="2.84" shape="-439.52,35.09 -440.33,34.91 -440.88,34.70 -441.35,34.36 -441.95,33.78"/>
    </edge>
    <edge id=":J27_1" function="internal">
        <lane id=":J27_1_0" index="0" speed="13.89" length="0.95" shape="-439.69,31.52 -439.49,31.71 -439.33,31.82 -439.15,31.89 -438.88,31.95"/>
    </edge>
    <edge id=":J28_0" function="internal">
        <lane id=":J28_0_0" index="0" speed="7.55" length="2.49" shape="-465.67,10.06 -466.05,9.49 -466.09,8.99 -466.02,8.43 -466.10,7.69"/>
    </edge>
    <edge id=":J28_1" function="internal">
        <lane id=":J28_1_0" index="0" speed="13.89" length="0.85" shape="-463.82,7.08 -463.76,7.32 -463.69,7.48 -463.58,7.62 -463.41,7.80"/>
    </edge>
    <edge id=":J30_0" function="internal">
        <lane id=":J30_0_0" index="0" speed="4.43" length="1.02" shape="-462.06,-59.10 -462.30,-58.91 -462.44,-58.75 -462.54,-58.57 -462.63,-58.28"/>
    </edge>
    <edge id=":J30_1" function="internal">
        <lane id=":J30_1_0" index="0" speed="7.31" length="2.89" shape="-464.24,-58.76 -464.01,-61.64"/>
    </edge>
    <edge id=":J31_0" function="internal">
        <lane id=":J31_0_0" index="0" speed="4.32" length="1.13" shape="-434.85,-79.41 -435.18,-79.41 -435.41,-79.38 -435.62,-79.28 -435.89,-79.08"/>
    </edge>
    <edge id=":J31_1" function="internal">
        <lane id=":J31_1_0" index="0" speed="6.88" length="3.40" shape="-437.84,-81.63 -437.03,-82.21 -436.40,-82.52 -435.70,-82.62 -434.70,-82.61"/>
    </edge>
    <edge id=":J32_0" function="internal">
        <lane id=":J32_0_0" index="0" speed="13.89" length="0.15" shape="-384.61,-77.12 -384.76,-77.13"/>
    </edge>
    <edge id=":J32_1" function="internal">
        <lane id=":J32_1_0" index="0" speed="13.89" length="0.28" shape="-384.61,-80.32 -384.33,-80.30"/>
    </edge>
    <edge id=":J33_0" function="internal">
        <lane id=":J33_0_0" index="0" speed="6.08" length="7.83" shape="-312.84,-178.17 -312.56,-180.30 -311.67,-181.82 -310.15,-182.73 -308.02,-183.03"/>
    </edge>
    <edge id=":J33_1" function="internal">
        <lane id=":J33_1_0" index="0" speed="3.90" length="2.61" shape="-308.03,-179.83 -308.74,-179.73 -309.25,-179.43 -309.55,-178.92 -309.64,-178.21"/>
    </edge>
    <edge id=":J34_0" function="internal">
        <lane id=":J34_0_0" index="0" speed="6.07" length="8.08" shape="-157.80,-182.58 -155.59,-182.26 -154.06,-181.30 -153.21,-179.70 -153.03,-177.48"/>
    </edge>
    <edge id=":J34_1" function="internal">
        <lane id=":J34_1_0" index="0" speed="3.90" length="2.69" shape="-156.22,-177.68 -156.28,-178.42 -156.57,-178.95 -157.08,-179.27 -157.81,-179.38"/>
    </edge>
    <edge id=":J35_0" function="internal">
        <lane id=":J35_0_0" index="0" speed="6.07" length="7.99" shape="-34.52,-73.73 -32.34,-73.46 -30.79,-72.54 -29.89,-70.99 -29.64,-68.80"/>
    </edge>
    <edge id=":J35_1" function="internal">
        <lane id=":J35_1_0" index="0" speed="3.90" length="2.66" shape="-32.84,-68.89 -32.92,-69.62 -33.22,-70.13 -33.74,-70.44 -34.47,-70.53"/>
    </edge>
    <edge id=":J36_0" function="internal">
        <lane id=":J36_0_0" index="0" speed="6.08" length="7.80" shape="-32.74,48.35 -33.09,50.46 -34.04,51.94 -35.58,52.80 -37.71,53.02"/>
    </edge>
    <edge id=":J36_1" function="internal">
        <lane id=":J36_1_0" index="0" speed="3.90" length="2.60" shape="-37.59,49.82 -36.88,49.75 -36.37,49.46 -36.05,48.97 -35.93,48.27"/>
    </edge>
    <edge id=":J37_0" function="internal">
        <lane id=":J37_0_0" index="0" speed="13.89" length="3.14" shape="-539.45,86.84 -539.79,85.82 -539.97,85.09 -540.04,84.35 -540.06,83.26"/>
        <lane id=":J37_0_1" index="1" speed="13.89" length="3.14" shape="-536.42,85.80 -536.67,85.07 -536.79,84.55 -536.84,84.02 -536.86,83.25"/>
    </edge>
    <edge id=":J37_2" function="internal">
        <lane id=":J37_2_0" index="0" speed="13.89" length="1.05" shape="-530.46,83.21 -530.45,83.37 -530.44,83.47 -530.42,83.58 -530.37,83.72"/>
        <lane id=":J37_2_1" index="1" speed="11.81" length="1.05" shape="-533.66,83.23 -533.65,83.69 -533.62,84.01 -533.54,84.32 -533.40,84.76"/>
    </edge>
    <edge id=":J38_0" function="internal">
        <lane id=":J38_0_0" index="0" speed="13.89" length="22.43" shape="-540.43,11.79 -540.19,-10.68"/>
        <lane id=":J38_0_1" index="1" speed="13.89" length="22.43" shape="-537.23,11.77 -536.99,-10.62"/>
    </edge>
    <edge id=":J38_2" function="internal">
        <lane id=":J38_2_0" index="0" speed="11.89" length="4.01" shape="-537.23,11.77 -536.47,7.83"/>
    </edge>
    <edge id=":J38_8" function="internal">
        <lane id=":J38_8_0" index="0" speed="11.89" length="17.92" shape="-536.47,7.83 -536.38,7.37 -533.80,3.31 -529.48,-0.41 -523.42,-3.79"/>
    </edge>
    <edge id=":J38_3" function="internal">
        <lane id=":J38_3_0" index="0" speed="9.80" length="14.66" shape="-520.73,2.02 -525.16,4.38 -528.32,6.79 -530.21,9.24 -530.83,11.74"/>
    </edge>
    <edge id=":J38_4" function="internal">
        <lane id=":J38_4_0" index="0" speed="8.82" length="23.50" shape="-522.08,-0.89 -528.73,1.15 -533.43,0.21 -536.18,-3.71 -536.99,-10.62"/>
    </edge>
    <edge id=":J38_5" function="internal">
        <lane id=":J38_5_0" index="0" speed="5.75" length="9.18" shape="-530.59,-10.49 -530.28,-7.80 -529.20,-6.26 -527.37,-5.90 -524.77,-6.69"/>
    </edge>
    <edge id=":J38_6" function="internal">
        <lane id=":J38_6_0" index="0" speed="13.89" length="22.27" shape="-530.59,-10.49 -530.83,11.74"/>
        <lane id=":J38_6_1" index="1" speed="13.89" length="22.27" shape="-533.79,-10.56 -534.03,11.75"/>
    </edge>
    <edge id=":J40_0" function="internal">
        <lane id=":J40_0_0" index="0" speed="5.50" length="9.57" shape="-523.82,-67.52 -526.26,-69.28 -528.03,-69.46 -529.11,-68.06 -529.53,-65.08"/>
    </edge>
    <edge id=":J40_1" function="internal">
        <lane id=":J40_1_0" index="0" speed="13.89" length="25.10" shape="-521.66,-69.88 -527.74,-75.93 -532.10,-81.33 -534.72,-86.07 -535.61,-90.14"/>
    </edge>
    <edge id=":J40_2" function="internal">
        <lane id=":J40_2_0" index="0" speed="13.89" length="19.91" shape="-529.21,-90.18 -528.46,-87.44 -526.23,-83.93 -522.52,-79.65 -517.33,-74.59"/>
    </edge>
    <edge id=":J40_3" function="internal">
        <lane id=":J40_3_0" index="0" speed="13.89" length="25.06" shape="-529.21,-90.18 -529.53,-65.08"/>
        <lane id=":J40_3_1" index="1" speed="13.89" length="25.06" shape="-532.41,-90.16 -532.73,-65.14"/>
    </edge>
    <edge id=":J40_5" function="internal">
        <lane id=":J40_5_0" index="0" speed="13.89" length="24.90" shape="-539.12,-65.27 -538.81,-90.12"/>
        <lane id=":J40_5_1" index="1" speed="13.89" length="24.90" shape="-535.93,-65.21 -535.61,-90.14"/>
    </edge>
    <edge id=":J40_7" function="internal">
        <lane id=":J40_7_0" index="0" speed="8.23" length="3.03" shape="-535.93,-65.21 -535.16,-68.14"/>
    </edge>
    <edge id=":J40_8" function="internal">
        <lane id=":J40_8_0" index="0" speed="8.23" length="20.40" shape="-535.16,-68.14 -534.30,-71.44 -530.38,-74.96 -525.12,-75.37 -519.49,-72.23"/>
    </edge>
    <edge id=":J41_0" function="internal">
        <lane id=":J41_0_0" index="0" speed="13.89" length="2.35" shape="-539.20,-155.97 -539.19,-156.79 -539.16,-157.35 -539.06,-157.90 -538.88,-158.69"/>
        <lane id=":J41_0_1" index="1" speed="13.89" length="2.35" shape="-536.00,-155.99 -535.99,-156.58 -535.97,-156.97 -535.90,-157.37 -535.77,-157.93"/>
    </edge>
    <edge id=":J41_2" function="internal">
        <lane id=":J41_2_0" index="0" speed="13.89" length="0.78" shape="-529.55,-156.42 -529.58,-156.31 -529.59,-156.23 -529.60,-156.15 -529.60,-156.03"/>
        <lane id=":J41_2_1" index="1" speed="13.89" length="0.78" shape="-532.66,-157.18 -532.74,-156.84 -532.78,-156.60 -532.80,-156.36 -532.80,-156.01"/>
    </edge>
    <edge id=":J42_0" function="internal">
        <lane id=":J42_0_0" index="0" speed="13.89" length="1.96" shape="-514.01,-219.04 -514.22,-218.84 -514.34,-218.69 -514.42,-218.50 -514.50,-218.22"/>
        <lane id=":J42_0_1" index="1" speed="7.17" length="1.96" shape="-516.13,-221.43 -516.77,-220.84 -517.14,-220.37 -517.39,-219.82 -517.61,-218.98"/>
    </edge>
    <edge id=":J42_2" function="internal">
        <lane id=":J42_2_0" index="0" speed="10.69" length="5.88" shape="-523.83,-220.49 -523.31,-222.44 -522.75,-223.74 -521.86,-224.84 -520.38,-226.22"/>
        <lane id=":J42_2_1" index="1" speed="9.10" length="5.88" shape="-520.72,-219.74 -520.35,-221.13 -519.95,-222.06 -519.32,-222.84 -518.26,-223.82"/>
    </edge>
    <edge id=":J43_0" function="internal">
        <lane id=":J43_0_0" index="0" speed="13.89" length="1.76" shape="-478.63,-250.17 -478.88,-250.12 -479.05,-250.06 -479.20,-249.96 -479.40,-249.79"/>
        <lane id=":J43_0_1" index="1" speed="7.46" length="1.76" shape="-479.20,-253.32 -479.96,-253.16 -480.48,-252.99 -480.93,-252.69 -481.53,-252.18"/>
    </edge>
    <edge id=":J43_2" function="internal">
        <lane id=":J43_2_0" index="0" speed="11.13" length="5.29" shape="-485.78,-256.97 -484.40,-258.15 -483.33,-258.84 -482.13,-259.25 -480.35,-259.61"/>
        <lane id=":J43_2_1" index="1" speed="9.47" length="5.29" shape="-483.65,-254.58 -482.66,-255.42 -481.90,-255.91 -481.05,-256.21 -479.77,-256.47"/>
    </edge>
    <edge id=":J44_0" function="internal">
        <lane id=":J44_0_0" index="0" speed="13.89" length="0.56" shape="-415.95,-261.58 -416.04,-261.58 -416.09,-261.58 -416.15,-261.57 -416.23,-261.56"/>
        <lane id=":J44_0_1" index="1" speed="13.89" length="0.56" shape="-415.97,-264.78 -416.22,-264.78 -416.39,-264.77 -416.56,-264.75 -416.81,-264.71"/>
    </edge>
    <edge id=":J44_2" function="internal">
        <lane id=":J44_2_0" index="0" speed="13.89" length="1.68" shape="-417.96,-271.00 -417.38,-271.10 -416.98,-271.16 -416.59,-271.18 -416.00,-271.18"/>
        <lane id=":J44_2_1" index="1" speed="13.89" length="1.68" shape="-417.38,-267.85 -416.97,-267.93 -416.69,-267.96 -416.40,-267.98 -415.99,-267.98"/>
    </edge>
    <edge id=":J45_0" function="internal">
        <lane id=":J45_0_0" index="0" speed="13.89" length="0.19" shape="-316.87,-262.10 -317.02,-262.10"/>
        <lane id=":J45_0_1" index="1" speed="13.89" length="0.19" shape="-316.81,-265.30 -317.04,-265.30"/>
    </edge>
    <edge id=":J45_2" function="internal">
        <lane id=":J45_2_0" index="0" speed="13.89" length="0.35" shape="-317.07,-271.70 -316.68,-271.70"/>
        <lane id=":J45_2_1" index="1" speed="13.89" length="0.35" shape="-317.05,-268.50 -316.74,-268.50"/>
    </edge>
    <edge id=":J46_0" function="internal">
        <lane id=":J46_0_0" index="0" speed="13.89" length="0.37" shape="-183.16,-259.53 -183.59,-259.53"/>
        <lane id=":J46_0_1" index="1" speed="13.89" length="0.37" shape="-183.23,-262.73 -183.53,-262.73"/>
    </edge>
    <edge id=":J46_2" function="internal">
        <lane id=":J46_2_0" index="0" speed="13.89" length="0.11" shape="-183.41,-269.13 -183.36,-269.13"/>
        <lane id=":J46_2_1" index="1" speed="13.89" length="0.11" shape="-183.47,-265.93 -183.29,-265.93"/>
    </edge>
    <edge id=":J47_0" function="internal">
        <lane id=":J47_0_0" index="0" speed="13.89" length="0.24" shape="-61.50,-262.10 -61.71,-262.10"/>
        <lane id=":J47_0_1" index="1" speed="13.89" length="0.24" shape="-61.52,-265.30 -61.78,-265.30"/>
    </edge>
    <edge id=":J47_2" function="internal">
        <lane id=":J47_2_0" index="0" speed="13.89" length="0.34" shape="-61.91,-271.70 -61.55,-271.70"/>
        <lane id=":J47_2_1" index="1" speed="13.89" length="0.34" shape="-61.85,-268.50 -61.53,-268.50"/>
    </edge>
    <edge id=":J48_0" function="internal">
        <lane id=":J48_0_0" index="0" speed="4.27" length="2.42" shape="37.60,-262.18 37.34,-262.41 37.12,-262.54 36.87,-262.59 36.52,-262.60"/>
        <lane id=":J48_0_1" index="1" speed="6.77" length="2.42" shape="39.76,-264.55 38.95,-265.24 38.30,-265.62 37.57,-265.77 36.50,-265.80"/>
    </edge>
    <edge id=":J48_2" function="internal">
        <lane id=":J48_2_0" index="0" speed="10.05" length="7.26" shape="36.47,-272.20 38.95,-272.14 40.67,-271.77 42.18,-270.89 44.07,-269.28"/>
        <lane id=":J48_2_1" index="1" speed="8.57" length="7.26" shape="36.49,-269.00 38.26,-268.95 39.48,-268.69 40.57,-268.07 41.91,-266.91"/>
    </edge>
    <edge id=":J49_0" function="internal">
        <lane id=":J49_0_0" index="0" speed="13.89" length="1.74" shape="80.62,-222.73 80.54,-222.97 80.46,-223.13 80.35,-223.27 80.17,-223.45"/>
        <lane id=":J49_0_1" index="1" speed="7.51" length="1.74" shape="83.68,-223.66 83.44,-224.39 83.21,-224.87 82.88,-225.29 82.32,-225.81"/>
    </edge>
    <edge id=":J49_2" function="internal">
        <lane id=":J49_2_0" index="0" speed="11.21" length="5.21" shape="86.63,-230.55 87.93,-229.32 88.72,-228.35 89.25,-227.22 89.81,-225.52"/>
        <lane id=":J49_2_1" index="1" speed="9.54" length="5.21" shape="84.47,-228.18 85.40,-227.30 85.97,-226.61 86.35,-225.81 86.74,-224.59"/>
    </edge>
    <edge id=":J50_0" function="internal">
        <lane id=":J50_0_0" index="0" speed="13.76" length="3.80" shape="106.38,-170.90 106.75,-169.65 106.92,-168.76 106.92,-167.85 106.81,-166.55"/>
        <lane id=":J50_0_1" index="1" speed="11.69" length="3.80" shape="103.32,-169.98 103.58,-169.08 103.70,-168.44 103.71,-167.80 103.63,-166.86"/>
    </edge>
    <edge id=":J50_2" function="internal">
        <lane id=":J50_2_0" index="0" speed="13.89" length="1.27" shape="97.26,-167.49 97.27,-167.68 97.27,-167.81 97.25,-167.94 97.20,-168.12"/>
        <lane id=":J50_2_1" index="1" speed="9.15" length="1.27" shape="100.44,-167.18 100.49,-167.74 100.49,-168.13 100.42,-168.51 100.26,-169.05"/>
    </edge>
    <edge id=":J51_0" function="internal">
        <lane id=":J51_0_0" index="0" speed="13.89" length="0.34" shape="100.79,-105.82 100.75,-105.46"/>
        <lane id=":J51_0_1" index="1" speed="13.89" length="0.34" shape="97.61,-106.14 97.57,-105.83"/>
    </edge>
    <edge id=":J51_2" function="internal">
        <lane id=":J51_2_0" index="0" speed="13.89" length="0.24" shape="91.21,-106.55 91.24,-106.77"/>
        <lane id=":J51_2_1" index="1" speed="13.89" length="0.24" shape="94.39,-106.19 94.42,-106.45"/>
    </edge>
    <edge id=":J52_0" function="internal">
        <lane id=":J52_0_0" index="0" speed="13.89" length="0.11" shape="89.48,-6.10 89.48,-6.05"/>
        <lane id=":J52_0_1" index="1" speed="13.89" length="0.11" shape="86.30,-6.46 86.29,-6.28"/>
    </edge>
    <edge id=":J52_2" function="internal">
        <lane id=":J52_2_0" index="0" speed="13.89" length="0.37" shape="79.90,-6.75 79.94,-7.18"/>
        <lane id=":J52_2_1" index="1" speed="13.89" length="0.37" shape="83.10,-6.52 83.12,-6.82"/>
    </edge>
    <edge id=":J53_0" function="internal">
        <lane id=":J53_0_0" index="0" speed="9.41" length="11.00" shape="81.52,103.41 81.00,106.20 79.89,108.62 78.19,110.66 75.89,112.33"/>
        <lane id=":J53_0_1" index="1" speed="8.03" length="7.86" shape="78.32,103.18 77.96,105.17 77.16,106.90 75.95,108.36 74.30,109.55"/>
    </edge>
    <edge id=":J53_2" function="internal">
        <lane id=":J53_2_0" index="0" speed="4.05" length="1.57" shape="71.14,103.99 71.47,103.75 71.71,103.46 71.87,103.11 71.94,102.72"/>
        <lane id=":J53_2_1" index="1" speed="6.36" length="4.71" shape="72.72,106.77 73.71,106.06 74.44,105.18 74.91,104.14 75.13,102.95"/>
    </edge>
    <edge id=":J54_0" function="internal">
        <lane id=":J54_0_0" index="0" speed="12.34" length="4.36" shape="2.59,154.07 1.28,154.80 0.31,155.20 -0.71,155.40 -2.20,155.52"/>
        <lane id=":J54_0_1" index="1" speed="10.49" length="4.36" shape="1.01,151.29 0.07,151.81 -0.62,152.10 -1.35,152.24 -2.42,152.32"/>
    </edge>
    <edge id=":J54_2" function="internal">
        <lane id=":J54_2_0" index="0" speed="13.89" length="1.45" shape="-2.85,145.94 -2.63,145.92 -2.49,145.89 -2.35,145.84 -2.16,145.73"/>
        <lane id=":J54_2_1" index="1" speed="8.23" length="1.45" shape="-2.63,149.13 -1.99,149.08 -1.55,148.99 -1.14,148.82 -0.58,148.51"/>
    </edge>
    <edge id=":J55_0" function="internal">
        <lane id=":J55_0_0" index="0" speed="13.89" length="0.68" shape="-115.55,163.11 -116.35,163.14"/>
        <lane id=":J55_0_1" index="1" speed="13.89" length="0.68" shape="-115.77,159.92 -116.33,159.94"/>
    </edge>
    <edge id=":J55_2" function="internal">
        <lane id=":J55_2_0" index="0" speed="13.89" length="0.23" shape="-116.31,153.54 -116.19,153.54"/>
        <lane id=":J55_2_1" index="1" speed="13.89" length="0.23" shape="-116.32,156.74 -115.98,156.73"/>
    </edge>
    <edge id=":J56_0" function="internal">