
<routes>
    <vType id="typeYellow" accel="5.0" decel="4.5" sigma="0.5" length="5" minGap="0.5" maxSpeed="10" guiShape="passenger"/>
    <vType id="typeRed" accel="2.5" decel="2.5" sigma="0.5" length="5" minGap="2.5" maxSpeed="5" guiShape="passenger" color="1,0,0"/>
    <vType id="typeGreen" accel="4.0" decel="3.5" sigma="0.5" length="5" minGap="1.5" maxSpeed="10" guiShape="passenger" color="0,1,0"/>
     <vType id="typeTeszt" accel="2.5" decel="2.5" sigma="0.5" length="5" minGap="3.5" maxSpeed="10" guiShape="passenger" color="0,0,1"/>

    <flow id="f_1" type="typeYellow" beg="0" end="0" number="10" from="-E38" to="-E30"/>


    <route id="route_0" edges="E24 E25 E64 E65 " />
    <route id="route_1" edges="-E38 -E37" />
    <vehicle id="11" type="typeTeszt" route="route_0" depart="0"/>
    <vehicle id="1" type="typeTeszt" route="route_1" depart="0"/>

    <flow id="f_2" type="typeRed" end="1100" probability="0.01" from="E65" to="-E35"/>
    <flow id="f_4" type="typeYellow" end="1100" probability="0.01" from="E65" to="-E35"/>
    <flow id="f_5" type="typeGreen" end="1100" probability="0.01" from="E65" to="-E35"/>
    <flow id="f_6" type="typeGreen" end="1100" probability="0.01" from="E25" to="-E55"/>
    <flow id="f_7" type="typeRed" end="1100" probability="0.01" from="E25" to="-E55"/>
    <flow id="f_3" type="typeYellow" end="1100" probability="0.01" from="E25" to="-E55"/>


</routes>
